[TITLE]
;;Project Title/Notes
;Created by Giswater
;Giswater, the open water management tool.
Esercitazione Fognatura Pergine 20190502

[OPTIONS]
;;Option             Value
FLOW_UNITS           CMS
INFILTRATION         CURVE_NUMBER
FLOW_ROUTING         DYNWAVE
LINK_OFFSETS         DEPTH
MIN_SLOPE            0
ALLOW_PONDING        YES
SKIP_STEADY_STATE    NO

START_DATE           01/01/2001
START_TIME           00:00:00
REPORT_START_DATE    01/01/2001
REPORT_START_TIME    00:00:00
END_DATE             01/01/2001
END_TIME             05:00:00
SWEEP_START          01/01
SWEEP_END            12/31
DRY_DAYS             10
REPORT_STEP          00:00:30
WET_STEP             00:01:00
DRY_STEP             01:00:00
ROUTING_STEP         0:00:02 
RULE_STEP            00:00:00

INERTIAL_DAMPING     NONE
NORMAL_FLOW_LIMITED  BOTH
FORCE_MAIN_EQUATION  H-W
VARIABLE_STEP        0.75
LENGTHENING_STEP     0
MIN_SURFAREA         0
MAX_TRIALS           0
HEAD_TOLERANCE       0
SYS_FLOW_TOL         5
LAT_FLOW_TOL         5
MINIMUM_STEP         0.5
THREADS              1

[EVAPORATION]
;;Data Source    Parameters
;;-------------- ----------------
CONSTANT         0.0
DRY_ONLY         NO

[RAINGAGES]
;;Name           Format    Interval SCF      Source    
;;-------------- --------- ------ ------ ----------
rg1              INTENSITY 0:01     1        TIMESERIES rain10          

[SUBCATCHMENTS]
;;Name           Rain Gage        Outlet           Area     %Imperv  Width    %Slope   CurbLen  SnowPack        
;;-------------- ---------------- ---------------- -------- -------- -------- -------- -------- ----------------
s19_01           rg1              n19              1.014637 90.0000  75.3117  5.0491   134.7249                 
s12_02           rg1              n12              1.060344 90.0000  77.1751  5.9194   137.3946                 
s12_01           rg1              n12              1.038222 70.0000  76.0394  7.1237   136.5373                 
s10              rg1              n10              1.092479 80.0000  74.8901  5.5582   145.8776                 
s10_01           rg1              n10              1.038568 70.0000  62.2140  8.6957   166.9348                 
s29              rg1              n29              1.050029 75.0000  74.4642  6.3791   141.0113                 
s09              rg1              n09              1.462548 80.0000  82.4728  4.5543   177.3369                 
s19              rg1              n19              1.047209 40.0000  76.2096  4.1690   137.4117                 
s01_02           rg1              n01              1.080047 80.0000  77.7138  6.4584   138.9775                 
s01_01           rg1              n01              0.939993 90.0000  72.6010  10.7432  129.4738                 
s12              rg1              n12              0.901448 90.0000  70.7772  13.9086  127.3641                 
s01              rg1              n01              1.152499 85.0000  80.2981  11.5578  143.5276                 
s00              rg1              n00              1.084137 50.0000  75.2638  6.3584   144.0449                 
s20              rg1              n20              1.004904 85.0000  75.0773  7.1099   133.8493                 
s16              rg1              n16              0.975958 10.0000  71.0582  2.2707   137.3462                 
s13_01           rg1              n13              0.990202 10.0000  70.9999  4.6572   139.4653                 
s13_02           rg1              n13              1.004460 85.0000  65.5828  8.1738   153.1591                 
s14              rg1              n14              1.025949 80.0000  66.7608  7.3148   153.6755                 
s24              rg1              n24              0.939075 75.0000  67.4724  7.3451   139.1791                 
s13              rg1              n13              0.887070 90.0000  59.8993  6.2876   148.0937                 
s15              rg1              n15              0.780546 70.0000  65.5824  6.3175   119.0176                 
s21              rg1              n21              1.072246 90.0000  70.4068  11.6097  152.2929                 
s03_01           rg1              n03              1.067250 80.0000  75.5908  11.2693  141.1879                 
s20_01           rg1              n20              1.016254 90.0000  75.7197  3.8886   134.4893                 
s02              rg1              n02              1.023604 75.0000  71.1285  7.5272   138.0002                 
s03              rg1              n03              0.987886 80.0000  72.0422  5.5016   137.1259                 
s23              rg1              n23              0.817732 75.0000  65.1224  5.5880   125.5684                 
s26              rg1              n26              1.050777 85.0000  75.8964  6.5507   138.4489                 
s14_02           rg1              n14              0.962420 70.0000  68.7485  9.8188   139.9914                 
s17_01           rg1              n17              1.003706 80.0000  74.8155  7.3233   134.1575                 
s04_01           rg1              n04              1.044307 80.0000  72.7616  7.3545   143.5245                 
s06              rg1              n06              0.957904 90.0000  72.9508  4.4018   131.3083                 
s10_02           rg1              n10              1.004988 80.0000  74.3850  6.2758   135.1064                 
s14_01           rg1              n14              1.040412 80.0000  70.7063  8.4753   147.1457                 
s18_01           rg1              n18              1.019582 85.0000  75.3374  12.5255  135.3355                 
s22              rg1              n22              1.019134 75.0000  70.7244  7.1086   144.0994                 
s05              rg1              n05              0.845465 80.0000  67.0055  7.8243   126.1784                 
s28              rg1              n28              0.991457 85.0000  64.2211  6.5427   154.3820                 
s04              rg1              n04              1.005458 85.0000  70.2821  9.8750   143.0603                 
s18              rg1              n18              0.725518 80.0000  58.5707  8.0276   123.8705                 
s26_01           rg1              n26              1.067771 70.0000  77.0758  4.0094   138.5353                 
s11_01           rg1              n11              1.018934 90.0000  66.5288  15.9793  153.1568                 
s09_01           rg1              n09              1.001325 75.0000  65.7344  4.8492   152.3289                 
s08              rg1              n08              1.014244 85.0000  74.0877  10.2455  136.8978                 
s25              rg1              n25              1.004782 80.0000  73.2900  8.0040   137.0966                 
s15_01           rg1              n15              1.024587 85.0000  73.0415  8.0131   140.2746                 
s08_01           rg1              n08              1.272766 80.0000  83.0260  5.1271   153.2972                 
s29_01           rg1              n29              1.028659 85.0000  71.9473  7.3326   142.9740                 
s10_03           rg1              n10              1.117855 90.0000  75.1288  6.3869   148.7918                 
s26_02           rg1              n26              1.009280 80.0000  75.1101  7.7500   134.3735                 
s27_01           rg1              n27              1.055934 90.0000  71.3014  9.3889   148.0944                 
s17              rg1              n17              1.079909 80.0000  76.2512  8.5253   141.6252                 
s07              rg1              n07              0.828395 75.0000  62.5872  7.8402   132.3585                 
s11              rg1              n11              1.033258 70.0000  74.0565  9.1929   139.5230                 
s24_01           rg1              n24              1.040943 75.0000  73.4494  7.8793   141.7225                 
s27              rg1              n27              1.018977 85.0000  67.3814  12.6243  151.2253                 

[SUBAREAS]
;;Subcatchment   N-Imperv   N-Perv     S-Imperv   S-Perv     PctZero    RouteTo    PctRouted 
;;-------------- ---------- ---------- ---------- ---------- ---------- ---------- ----------
s19_01           0.0130     0.2000     0.0500     0.0500     0.0000     PERVIOUS   100.0000  
s12_02           0.0130     0.2000     0.0500     0.0500     0.0000     OUTLET    
s12_01           0.0130     0.2000     0.0500     0.0500     0.0000     PERVIOUS   100.0000  
s10              0.0130     0.2000     0.0500     0.0500     0.0000     OUTLET    
s10_01           0.0130     0.2000     0.0500     0.0500     0.0000     OUTLET    
s29              0.0130     0.2000     0.0500     0.0500     0.0000     OUTLET    
s09              0.0130     0.2000     0.0500     0.0500     0.0000     OUTLET    
s19              0.0130     0.2000     0.0500     0.0500     0.0000     OUTLET    
s01_02           0.0130     0.2000     0.0500     0.0500     0.0000     PERVIOUS   100.0000  
s01_01           0.0130     0.2000     0.0500     0.0500     0.0000     OUTLET    
s12              0.0130     0.2000     0.0500     0.0500     0.0000     OUTLET    
s01              0.0130     0.2000     0.0500     0.0500     0.0000     OUTLET    
s00              0.0130     0.2000     0.0500     0.0500     0.0000     OUTLET    
s20              0.0130     0.2000     0.0500     0.0500     0.0000     OUTLET    
s16              0.0130     0.2000     0.0500     0.0500     0.0000     OUTLET    
s13_01           0.0130     0.2000     0.0500     0.0500     0.0000     PERVIOUS   100.0000  
s13_02           0.0130     0.2000     0.0500     0.0500     0.0000     OUTLET    
s14              0.0130     0.2000     0.0500     0.0500     0.0000     OUTLET    
s24              0.0130     0.2000     0.0500     0.0500     0.0000     OUTLET    
s13              0.0130     0.2000     0.0500     0.0500     0.0000     OUTLET    
s15              0.0130     0.2000     0.0500     0.0500     0.0000     OUTLET    
s21              0.0130     0.2000     0.0500     0.0500     0.0000     OUTLET    
s03_01           0.0130     0.2000     0.0500     0.0500     0.0000     PERVIOUS   100.0000  
s20_01           0.0130     0.2000     0.0500     0.0500     0.0000     PERVIOUS   100.0000  
s02              0.0130     0.2000     0.0500     0.0500     0.0000     OUTLET    
s03              0.0130     0.2000     0.0500     0.0500     0.0000     OUTLET    
s23              0.0130     0.2000     0.0500     0.0500     0.0000     OUTLET    
s26              0.0130     0.2000     0.0500     0.0500     0.0000     OUTLET    
s14_02           0.0130     0.2000     0.0500     0.0500     0.0000     OUTLET    
s17_01           0.0130     0.2000     0.0500     0.0500     0.0000     OUTLET    
s04_01           0.0130     0.2000     0.0500     0.0500     0.0000     OUTLET    
s06              0.0130     0.2000     0.0500     0.0500     0.0000     OUTLET    
s10_02           0.0130     0.2000     0.0500     0.0500     0.0000     OUTLET    
s14_01           0.0130     0.2000     0.0500     0.0500     0.0000     OUTLET    
s18_01           0.0130     0.2000     0.0500     0.0500     0.0000     OUTLET    
s22              0.0130     0.2000     0.0500     0.0500     0.0000     OUTLET    
s05              0.0130     0.2000     0.0500     0.0500     0.0000     OUTLET    
s28              0.0130     0.2000     0.0500     0.0500     0.0000     OUTLET    
s04              0.0130     0.2000     0.0500     0.0500     0.0000     OUTLET    
s18              0.0130     0.2000     0.0500     0.0500     0.0000     OUTLET    
s26_01           0.0130     0.2000     0.0500     0.0500     0.0000     OUTLET    
s11_01           0.0130     0.2000     0.0500     0.0500     0.0000     OUTLET    
s09_01           0.0130     0.2000     0.0500     0.0500     0.0000     OUTLET    
s08              0.0130     0.2000     0.0500     0.0500     0.0000     OUTLET    
s25              0.0130     0.2000     0.0500     0.0500     0.0000     OUTLET    
s15_01           0.0130     0.2000     0.0500     0.0500     0.0000     OUTLET    
s08_01           0.0130     0.2000     0.0500     0.0500     0.0000     PERVIOUS   100.0000  
s29_01           0.0130     0.2000     0.0500     0.0500     0.0000     OUTLET    
s10_03           0.0130     0.2000     0.0500     0.0500     0.0000     OUTLET    
s26_02           0.0130     0.2000     0.0500     0.0500     0.0000     PERVIOUS   100.0000  
s27_01           0.0130     0.2000     0.0500     0.0500     0.0000     PERVIOUS   100.0000  
s17              0.0130     0.2000     0.0500     0.0500     0.0000     OUTLET    
s07              0.0130     0.2000     0.0500     0.0500     0.0000     OUTLET    
s11              0.0130     0.2000     0.0500     0.0500     0.0000     OUTLET    
s24_01           0.0130     0.2000     0.0500     0.0500     0.0000     OUTLET    
s27              0.0130     0.2000     0.0500     0.0500     0.0000     OUTLET    

[INFILTRATION]
;;Subcatchment   CurveNum              DryTime   
;;-------------- ---------- ---------- ----------
s19_01           3.0        0.5        4         
s12_02           3.0        0.5        4         
s12_01           3.0        0.5        4         
s10              3.0        0.5        4         
s10_01           3.0        0.5        4         
s29              3.0        0.5        4         
s09              3.0        0.5        4         
s19              3.0        0.5        4         
s01_02           3.0        0.5        4         
s01_01           3.0        0.5        4         
s12              3.0        0.5        4         
s01              3.0        0.5        4         
s00              3.0        0.5        4         
s20              3.0        0.5        4         
s16              3.0        0.5        4         
s13_01           3.0        0.5        4         
s13_02           3.0        0.5        4         
s14              3.0        0.5        4         
s24              3.0        0.5        4         
s13              3.0        0.5        4         
s15              3.0        0.5        4         
s21              3.0        0.5        4         
s03_01           3.0        0.5        4         
s20_01           3.0        0.5        4         
s02              3.0        0.5        4         
s03              3.0        0.5        4         
s23              3.0        0.5        4         
s26              3.0        0.5        4         
s14_02           3.0        0.5        4         
s17_01           3.0        0.5        4         
s04_01           3.0        0.5        4         
s06              3.0        0.5        4         
s10_02           3.0        0.5        4         
s14_01           3.0        0.5        4         
s18_01           3.0        0.5        4         
s22              3.0        0.5        4         
s05              3.0        0.5        4         
s28              3.0        0.5        4         
s04              3.0        0.5        4         
s18              3.0        0.5        4         
s26_01           3.0        0.5        4         
s11_01           3.0        0.5        4         
s09_01           3.0        0.5        4         
s08              3.0        0.5        4         
s25              3.0        0.5        4         
s15_01           3.0        0.5        4         
s08_01           3.0        0.5        4         
s29_01           3.0        0.5        4         
s10_03           3.0        0.5        4         
s26_02           3.0        0.5        4         
s27_01           3.0        0.5        4         
s17              3.0        0.5        4         
s07              3.0        0.5        4         
s11              3.0        0.5        4         
s24_01           3.0        0.5        4         
s27              3.0        0.5        4         

[JUNCTIONS]
;;Name           Elevation  MaxDepth   InitDepth  SurDepth   Aponded   
;;-------------- ---------- ---------- ---------- ---------- ----------
n21              481.79     1.9        0.0000     0.0000     0.0000    
n15              472.343500 3.9265     0.0000     0.0000     0.0000    
n16              476.100    1.9        0.0000     0.0000     0.0000    
n17              476.6450   1.965      0.0000     0.0000     0.0000    
n18              475.7400   1.850000   0.0000     0.0000     0.0000    
n01              467.3040   2.1000     0.0000     0.0000     0.0000    
n09              460.6135   3.046500   0.0000     0.0000     0.0000    
n20              476.915    1.965      0.0000     0.0000     0.0000    
n24              472.669900 3.930100   0.0000     0.0000     0.0000    
n26              468.3250   2.1000     0.0000     0.0000     0.0000    
n27              462.237000 3.0330     0.0000     0.0000     0.0000    
n29              467.8200   2.3        0.0000     0.0000     0.0000    
n22              482.4400   1.850000   0.0000     0.0000     0.0000    
n23              478.6100   1.9        0.0000     0.0000     0.0000    
n25              470.251700 3.0983     0.0000     0.0000     0.0000    
n28              465.3000   2.43       0.0000     0.0000     0.0000    
n11              467.96     2.3        0.0000     0.0000     0.0000    
n03              481.329    2.371      0.0000     0.0000     0.0000    
n05              481.7400   1.85       0.0000     0.0000     0.0000    
n06              476.4600   1.9        0.0000     0.0000     0.0000    
n07              471.388700 4.321300   0.0000     0.0000     0.0000    
n08              467.802200 2.2878     0.0000     0.0000     0.0000    
n00              458.135500 4.0345     0.0000     0.0000     0.0000    
n19              462.99     2.10       0.0000     0.0000     0.0000    
n02              481.68     1.75       0.0000     0.0000     0.0000    
n10              468.35     2.3        0.0000     0.0000     0.0000    
n12              472.085    1.965      0.0000     0.0000     0.0000    
n13              472.6050   1.965      0.0000     0.0000     0.0000    
n14              472.9300   2.300000   0.0000     0.0000     0.0000    
n04              482.1500   1.85       0.0000     0.0000     0.0000    

[OUTFALLS]
;;Name           Elevation  Type       Stage Data       Gated    Route To        
;;-------------- ---------- ---------- ---------------- -------- ----------------
o0               456.5515   NORMAL                      NO                       

[CONDUITS]
;;Name           From Node        To Node          Length     Roughness  InOffset   OutOffset  InitFlow   MaxFlow   
;;-------------- ---------------- ---------------- ---------- ---------- ---------- ---------- ---------- ----------
c22              n17              n14              134.742    0.0110     0.0000     .29        0.0000     0.0000    
c23              n14              n24              86.711     0.0110     0.0000     0.0000     0.0000     0.0000    
c24              n24              n15              81.642     0.0110     0.0000     0.0000     0.0000     0.0000    
c25              n15              n07              136.401    0.0110     0.0000     .11        0.0000     0.0000    
c26              n18              n15              102.013    0.0110     0.0000     .45        0.0000     0.0000    
c21              n04              n17              219.784    0.0110     0.0000     .1         0.0000     0.0000    
c27              n21              n03              92.194     0.0110     0.0000     0.0000     0.0000     0.0000    
c28              n26              n11              130.451    0.0110     0.0000     .19        0.0000     0.0000    
c29              n11              n08              157.756    0.0110     0.0000     0.0000     0.0000     0.0000    
c00              n00              o0               198.000    0.0110     0.0000     0.0000     0.0000     0.0000    
c01              n19              n00              217.332    0.0110     0.0000     .525       0.0000     0.0000    
c02              n01              n19              206.291    0.0110     0.0000     0.0000     0.0000     0.0000    
c03              n12              n01              175.532    0.0110     0.0000     .1         0.0000     0.0000    
c04              n20              n12              180.057    0.0110     0.0000     0.0000     0.0000     0.0000    
c05              n02              n20              176.378    0.0110     0          .182       0.0000     0.0000    
c06              n09              n00              165.168    0.0110     0.0000     .172       0.0000     0.0000    
c07              n27              n09              191.042    0.0110     0.0000     0.0000     0.0000     0.0000    
c08              n28              n27              306.290    0.0110     0.0000     0.0000     0.0000     0.0000    
c09              n08              n28              155.126    0.0110     0.0000     0.0000     0.0000     0.0000    
c10              n25              n08              155.471    0.0110     0.0000     0.0000     0.0000     0.0000    
c11              n07              n25              113.732    0.0110     0.0000     0.0000     0.0000     0.0000    
c12              n06              n07              129.589    0.0110     0.0000     .456       0.0000     0.0000    
c13              n23              n06              118.705    0.0110     0.0000     0.0000     0.0000     0.0000    
c14              n05              n23              116.331    0.0110     0.023      .071       0.0000     0.0000    
c15              n22              n05              141.841    0.0110     0.0000     0.0000     0.0000     0.0000    
c16              n03              n16              239.952    0.0110     0.0000     0.0000     0.0000     0.0000    
c17              n16              n13              194.137    0.0110     0.0000     0.0000     0.0000     0.0000    
c18              n13              n10              200.341    0.0110     0.0000     .29        0.0000     0.0000    
c19              n10              n29              176.472    0.0110     0.0000     0.0000     0.0000     0.0000    
c20              n29              n09              178.870    0.0110     0.0000     .426       0.0000     0.0000    

[XSECTIONS]
;;Link           Shape        Geom1            Geom2      Geom3      Geom4      Barrels    Culvert   
;;-------------- ------------ ---------------- ---------- ---------- ---------- ---------- ----------
c22              CIRCULAR     .4               0.0000     0.0000     0.0000     1                    
c23              CIRCULAR     .69              0.0000     0.0000     0.0000     1                    
c24              CIRCULAR     .69              0.0000     0.0000     0.0000     1                    
c25              CIRCULAR     .69              0.0000     0.0000     0.0000     1                    
c26              CIRCULAR     .3               0.0000     0.0000     0.0000     1                    
c21              CIRCULAR     .3               0.0000     0.0000     0.0000     1                    
c27              CIRCULAR     .344             0.0000     0.0000     0.0000     1                    
c28              CIRCULAR     .5               0.0000     0.0000     0.0000     1                    
c29              CIRCULAR     .69              0.0000     0.0000     0.0000     1                    
c00              CIRCULAR     1.025            0.0000     0.0000     0.0000     1                    
c01              CIRCULAR     .5               0.0000     0.0000     0.0000     1                    
c02              CIRCULAR     .5               0.0000     0.0000     0.0000     1                    
c03              CIRCULAR     .4               0.0000     0.0000     0.0000     1                    
c04              CIRCULAR     .4               0.0000     0.0000     0.0000     1                    
c05              CIRCULAR     .218             0.0000     0.0000     0.0000     1                    
c06              CIRCULAR     .853             0.0000     0.0000     0.0000     1                    
c07              CIRCULAR     .8               0.0000     0.0000     0.0000     1                    
c08              CIRCULAR     .8               0.0000     0.0000     0.0000     1                    
c09              CIRCULAR     .8               0.0000     0.0000     0.0000     1                    
c10              CIRCULAR     .69              0.0000     0.0000     0.0000     1                    
c11              CIRCULAR     .8               0.0000     0.0000     0.0000     1                    
c12              CIRCULAR     .344             0.0000     0.0000     0.0000     1                    
c13              CIRCULAR     .344             0.0000     0.0000     0.0000     1                    
c14              CIRCULAR     .273             0.0000     0.0000     0.0000     1                    
c15              CIRCULAR     .3               0.0000     0.0000     0.0000     1                    
c16              CIRCULAR     .344             0.0000     0.0000     0.0000     1                    
c17              CIRCULAR     .344             0.0000     0.0000     0.0000     1                    
c18              CIRCULAR     .4               0.0000     0.0000     0.0000     1                    
c19              CIRCULAR     .69              0.0000     0.0000     0.0000     1                    
c20              CIRCULAR     .427             0.0000     0.0000     0.0000     1                    

[CONTROLS]
;;Text
;;----------------------------







[TIMESERIES]
;;Name           Date       Time       Value     
;;-------------- ---------- ---------- ----------
;5 mins Rainfall
rain5                       00:00      47.780861 
rain5                       00:01      47.780861 
rain5                       00:02      47.780861 
rain5                       00:03      47.780861 
rain5                       00:04      47.780861 
;
;10 mins Rainfall
rain10                      00:00      29.880404 
rain10                      00:01      29.880404 
rain10                      00:02      29.880404 
rain10                      00:03      29.880404 
rain10                      00:04      29.880404 
rain10                      00:05      29.880404 
rain10                      00:06      29.880404 
rain10                      00:07      29.880404 
rain10                      00:08      29.880404 
rain10                      00:09      29.880404 
;
;15 mins Rainfall
rain15                      00:00      22.705529 
rain15                      00:01      22.705529 
rain15                      00:02      22.705529 
rain15                      00:03      22.705529 
rain15                      00:04      22.705529 
rain15                      00:05      22.705529 
rain15                      00:06      22.705529 
rain15                      00:07      22.705529 
rain15                      00:08      22.705529 
rain15                      00:09      22.705529 
rain15                      00:10      22.705529 
rain15                      00:11      22.705529 
rain15                      00:12      22.705529 
rain15                      00:13      22.705529 
rain15                      00:14      22.705529 
;
;20 mins Rainfall
rain20                      00:00      18.686112 
rain20                      00:01      18.686112 
rain20                      00:02      18.686112 
rain20                      00:03      18.686112 
rain20                      00:04      18.686112 
rain20                      00:05      18.686112 
rain20                      00:06      18.686112 
rain20                      00:07      18.686112 
rain20                      00:08      18.686112 
rain20                      00:09      18.686112 
rain20                      00:10      18.686112 
rain20                      00:11      18.686112 
rain20                      00:12      18.686112 
rain20                      00:13      18.686112 
rain20                      00:14      18.686112 
rain20                      00:15      18.686112 
rain20                      00:16      18.686112 
rain20                      00:17      18.686112 
rain20                      00:19      18.686112 
;
;25 mins Rainfall
rain25                      00:00      16.065279 
rain25                      00:01      16.065279 
rain25                      00:02      16.065279 
rain25                      00:03      16.065279 
rain25                      00:04      16.065279 
rain25                      00:05      16.065279 
rain25                      00:06      16.065279 
rain25                      00:07      16.065279 
rain25                      00:08      16.065279 
rain25                      00:09      16.065279 
rain25                      00:10      16.065279 
rain25                      00:11      16.065279 
rain25                      00:12      16.065279 
rain25                      00:13      16.065279 
rain25                      00:14      16.065279 
rain25                      00:15      16.065279 
rain25                      00:16      16.065279 
rain25                      00:17      16.065279 
rain25                      00:18      16.065279 
rain25                      00:19      16.065279 
rain25                      00:20      16.065279 
rain25                      00:21      16.065279 
rain25                      00:22      16.065279 
rain25                      00:24      16.065279 

[REPORT]
;;Reporting Options
INPUT      YES
CONTROLS   YES
SUBCATCHMENTS ALL
NODES ALL
LINKS ALL

[TAGS]

[MAP]
DIMENSIONS 672093.253 5103371.861 673465.564 5104257.061
Units      None

[COORDINATES]
;;Node           X-Coord            Y-Coord           
;;-------------- ------------------ ------------------
n21              673221.099         5103977.136       
n15              673038.187         5103650.944       
n16              673004.893         5103932.594       
n17              673062.933         5103820.114       
n18              673134.920         5103683.338       
n01              672595.129         5104056.546       